<?xml version="1.0" encoding="UTF-8"?>

<!-- generated on 2024-07-25 06:35:33 by Eclipse SUMO netedit Version 1.18.0
-->

<additional xmlns:xsi="http://www.w3.org/2001/XMLSchema-instance" xsi:noNamespaceSchemaLocation="http://sumo.dlr.de/xsd/additional_file.xsd">
    <!-- Detectors -->
	<!-- Sb Detectors -->
    <inductionLoop id="Det_00000000" lane="E4_1" pos="61.00" period="300.00" file="Sb.xml"/>
	<inductionLoop id="Det_00000001" lane="E4_0" pos="60.99" period="300.00" file="Sb.xml"/>
    <inductionLoop id="Det_00000100" lane="E4_1" pos="81.00" period="300.00" file="Sb.xml"/>
	<inductionLoop id="Det_00000101" lane="E4_0" pos="81.07" period="300.00" file="Sb.xml"/>
	<inductionLoop id="Det_00000200" lane="E4_1" pos="101.00" period="300.00" file="Sb.xml"/>
	<inductionLoop id="Det_00000201" lane="E4_0" pos="101.35" period="300.00" file="Sb.xml"/>
    <inductionLoop id="Det_00000300" lane="E4_1" pos="121.00" period="300.00" file="Sb.xml"/>
	<inductionLoop id="Det_00000301" lane="E4_0" pos="121.06" period="300.00" file="Sb.xml"/>
    <inductionLoop id="Det_00000400" lane="E3_2" pos="0.00" period="300.00" file="Sb.xml"/>
	<inductionLoop id="Det_00000401" lane="E3_1" pos="0.00" period="300.00" file="Sb.xml"/>
	<inductionLoop id="Det_00000402" lane="E3_0" pos="0.00" period="300.00" file="Sb.xml"/>
    <inductionLoop id="Det_00000500" lane="E3_2" pos="20.00" period="300.00" file="Sb.xml"/>
	<inductionLoop id="Det_00000501" lane="E3_1" pos="20.26" period="300.00" file="Sb.xml"/>
	<inductionLoop id="Det_00000502" lane="E3_0" pos="20.31" period="300.00" file="Sb.xml"/>
    <inductionLoop id="Det_00000600" lane="E3_2" pos="40.00" period="300.00" file="Sb.xml"/>
	<inductionLoop id="Det_00000601" lane="E3_1" pos="40.17" period="300.00" file="Sb.xml"/>
	<inductionLoop id="Det_00000602" lane="E3_0" pos="40.41" period="300.00" file="Sb.xml"/>
    <inductionLoop id="Det_00000700" lane="E3_2" pos="60.00" period="300.00" file="Sb.xml"/>
	<inductionLoop id="Det_00000701" lane="E3_1" pos="60.16" period="300.00" file="Sb.xml"/>
	<inductionLoop id="Det_00000702" lane="E3_0" pos="60.26" period="300.00" file="Sb.xml"/>
    <inductionLoop id="Det_00000800" lane="E3_2" pos="80.00" period="300.00" file="Sb.xml"/>
	<inductionLoop id="Det_00000801" lane="E3_1" pos="80.27" period="300.00" file="Sb.xml"/>
    <inductionLoop id="Det_00000802" lane="E3_0" pos="79.99" period="300.00" file="Sb.xml"/>
    <inductionLoop id="Det_00000900" lane="E3_2" pos="100.00" period="300.00" file="Sb.xml"/>
	<inductionLoop id="Det_00000901" lane="E3_1" pos="99.87" period="300.00" file="Sb.xml"/>
    <inductionLoop id="Det_00000902" lane="E3_0" pos="99.76" period="300.00" file="Sb.xml"/>
    <inductionLoop id="Det_00001000" lane="E2_3" pos="20.20" period="300.00" file="Sb.xml"/>
	<inductionLoop id="Det_00001001" lane="E2_2" pos="20.20" period="300.00" file="Sb.xml"/>
    <inductionLoop id="Det_00001002" lane="E2_1" pos="20.20" period="300.00" file="Sb.xml"/>
    <inductionLoop id="Det_00001003" lane="E2_0" pos="20.20" period="300.00" file="Sb.xml"/>
    <inductionLoop id="Det_00001100" lane="E0_3" pos="26.30" period="300.00" file="Sb.xml" friendlyPos="1"/>
    <inductionLoop id="Det_00001101" lane="E0_2" pos="26.30" period="300.00" file="Sb.xml" friendlyPos="1"/>
    <inductionLoop id="Det_00001102" lane="E0_1" pos="26.30" period="300.00" file="Sb.xml" friendlyPos="1"/>
    <inductionLoop id="Det_00001103" lane="E0_0" pos="26.30" period="300.00" file="Sb.xml" friendlyPos="1"/>
    
	<!-- Nb Detectors -->
	<inductionLoop id="Det_01000000" lane="E133_4" pos="90.00" period="300.00" file="Nb.xml"/>
	<inductionLoop id="Det_01000001" lane="E133_3" pos="90.02" period="300.00" file="Nb.xml"/>
	<inductionLoop id="Det_01000002" lane="E133_2" pos="90.05" period="300.00" file="Nb.xml"/>
	<inductionLoop id="Det_01000003" lane="E133_1" pos="90.03" period="300.00" file="Nb.xml"/>
	<inductionLoop id="Det_01000004" lane="E133_0" pos="90.08" period="300.00" file="Nb.xml"/>
    <inductionLoop id="Det_01000100" lane="E133_4" pos="110.00" period="300.00" file="Nb.xml"/>
	<inductionLoop id="Det_01000101" lane="E133_3" pos="110.08" period="300.00" file="Nb.xml"/>
	<inductionLoop id="Det_01000102" lane="E133_2" pos="110.00" period="300.00" file="Nb.xml"/>
	<inductionLoop id="Det_01000103" lane="E133_1" pos="110.00" period="300.00" file="Nb.xml"/>
	<inductionLoop id="Det_01000104" lane="E133_0" pos="110.35" period="300.00" file="Nb.xml"/>
	<inductionLoop id="Det_01000200" lane="E133_4" pos="130.00" period="300.00" file="Nb.xml"/>
	<inductionLoop id="Det_01000201" lane="E133_3" pos="129.89" period="300.00" file="Nb.xml"/>
	<inductionLoop id="Det_01000202" lane="E133_2" pos="129.67" period="300.00" file="Nb.xml"/>
	<inductionLoop id="Det_01000203" lane="E133_1" pos="130.01" period="300.00" file="Nb.xml"/>
	<inductionLoop id="Det_01000204" lane="E133_0" pos="129.72" period="300.00" file="Nb.xml"/>
	<inductionLoop id="Det_01000300" lane="E134_4" pos="10" period="300.00" file="Nb.xml"/>
	<inductionLoop id="Det_01000301" lane="E134_3" pos="11.80" period="300.00" file="Nb.xml"/>
    <inductionLoop id="Det_01000302" lane="E134_2" pos="12.15" period="300.00" file="Nb.xml"/>
    <inductionLoop id="Det_01000303" lane="E134_1" pos="12.26" period="300.00" file="Nb.xml"/>
    <inductionLoop id="Det_01000304" lane="E134_0" pos="12.26" period="300.00" file="Nb.xml"/>
	<inductionLoop id="Det_01000400" lane="E134_4" pos="30" period="300.00" file="Nb.xml"/>
	<inductionLoop id="Det_01000401" lane="E134_3" pos="31.91" period="300.00" file="Nb.xml"/>
    <inductionLoop id="Det_01000402" lane="E134_2" pos="31.73" period="300.00" file="Nb.xml"/>
	<inductionLoop id="Det_01000403" lane="E134_1" pos="31.71" period="300.00" file="Nb.xml"/>
    <inductionLoop id="Det_01000404" lane="E134_0" pos="31.89" period="300.00" file="Nb.xml"/>
	<inductionLoop id="Det_01000500" lane="E134_4" pos="50" period="300.00" file="Nb.xml"/>
    <inductionLoop id="Det_01000501" lane="E134_3" pos="51.90" period="300.00" file="Nb.xml"/>
    <inductionLoop id="Det_01000502" lane="E134_2" pos="51.93" period="300.00" file="Nb.xml"/>
    <inductionLoop id="Det_01000503" lane="E134_1" pos="51.66" period="300.00" file="Nb.xml"/>
    <inductionLoop id="Det_01000504" lane="E134_0" pos="52.25" period="300.00" file="Nb.xml"/>
	<inductionLoop id="Det_01000600" lane="E134_4" pos="70" period="300.00" file="Nb.xml"/>
    <inductionLoop id="Det_01000601" lane="E134_3" pos="71.89" period="300.00" file="Nb.xml"/>
    <inductionLoop id="Det_01000602" lane="E134_2" pos="71.95" period="300.00" file="Nb.xml"/>
    <inductionLoop id="Det_01000603" lane="E134_1" pos="71.56" period="300.00" file="Nb.xml"/>
    <inductionLoop id="Det_01000604" lane="E134_0" pos="72.20" period="300.00" file="Nb.xml"/>
	<inductionLoop id="Det_01000700" lane="E134_4" pos="90" period="300.00" file="Nb.xml"/>
    <inductionLoop id="Det_01000701" lane="E134_3" pos="91.94" period="300.00" file="Nb.xml"/>
    <inductionLoop id="Det_01000702" lane="E134_2" pos="92.10" period="300.00" file="Nb.xml"/>
    <inductionLoop id="Det_01000703" lane="E134_1" pos="91.95" period="300.00" file="Nb.xml"/>
    <inductionLoop id="Det_01000704" lane="E134_0" pos="94" period="300.00" file="Nb.xml"/>
	<inductionLoop id="Det_01000800" lane="E130_4" pos="14.50" period="300.00" file="Nb.xml"/>
    <inductionLoop id="Det_01000801" lane="E130_3" pos="14.50" period="300.00" file="Nb.xml"/>
    <inductionLoop id="Det_01000802" lane="E130_2" pos="14.26" period="300.00" file="Nb.xml"/>
    <inductionLoop id="Det_01000803" lane="E130_1" pos="14.56" period="300.00" file="Nb.xml"/>
    <inductionLoop id="Det_01000804" lane="E130_0" pos="14.52" period="300.00" file="Nb.xml"/>
	<inductionLoop id="Det_01000900" lane="E130_4" pos="34.50" period="300.00" file="Nb.xml"/>
    <inductionLoop id="Det_01000901" lane="E130_3" pos="34.58" period="300.00" file="Nb.xml"/>
    <inductionLoop id="Det_01000902" lane="E130_2" pos="35.17" period="300.00" file="Nb.xml"/>
    <inductionLoop id="Det_01000903" lane="E130_1" pos="34.19" period="300.00" file="Nb.xml"/>
    <inductionLoop id="Det_01000904" lane="E130_0" pos="34.60" period="300.00" file="Nb.xml"/>
	<inductionLoop id="Det_01001000" lane="E130_4" pos="54.50" period="300.00" file="Nb.xml"/>
    <inductionLoop id="Det_01001001" lane="E130_3" pos="54.55" period="300.00" file="Nb.xml"/>
    <inductionLoop id="Det_01001002" lane="E130_2" pos="54.51" period="300.00" file="Nb.xml"/>
    <inductionLoop id="Det_01001003" lane="E130_1" pos="54.67" period="300.00" file="Nb.xml"/>
    <inductionLoop id="Det_01001004" lane="E130_0" pos="54.69" period="300.00" file="Nb.xml"/>
	<inductionLoop id="Det_01001100" lane="E131_5" pos="0.00" period="300.00" file="Nb.xml"/>
    <inductionLoop id="Det_01001101" lane="E131_4" pos="0.15" period="300.00" file="Nb.xml"/>
    <inductionLoop id="Det_01001102" lane="E131_3" pos="0.51" period="300.00" file="Nb.xml"/>
    <inductionLoop id="Det_01001103" lane="E131_2" pos="0.05" period="300.00" file="Nb.xml"/>
    <inductionLoop id="Det_01001104" lane="E131_1" pos="0.10" period="300.00" file="Nb.xml"/>
    <inductionLoop id="Det_01001105" lane="E131_0" pos="0.30" period="300.00" file="Nb.xml"/>
	<inductionLoop id="Det_01001200" lane="E131_5" pos="20.00" period="300.00" file="Nb.xml"/>
    <inductionLoop id="Det_01001201" lane="E131_4" pos="19.83" period="300.00" file="Nb.xml"/>
    <inductionLoop id="Det_01001202" lane="E131_3" pos="19.74" period="300.00" file="Nb.xml"/>
    <inductionLoop id="Det_01001203" lane="E131_2" pos="19.32" period="300.00" file="Nb.xml"/>
    <inductionLoop id="Det_01001204" lane="E131_1" pos="19.58" period="300.00" file="Nb.xml"/>
    <inductionLoop id="Det_01001205" lane="E131_0" pos="19.15" period="300.00" file="Nb.xml"/>
	<inductionLoop id="Det_01001300" lane="E131_5" pos="40.00" period="300.00" file="Nb.xml"/>
    <inductionLoop id="Det_01001301" lane="E131_4" pos="39.69" period="300.00" file="Nb.xml"/>
    <inductionLoop id="Det_01001302" lane="E131_3" pos="39.64" period="300.00" file="Nb.xml"/>
    <inductionLoop id="Det_01001303" lane="E131_2" pos="39.44" period="300.00" file="Nb.xml"/>
    <inductionLoop id="Det_01001304" lane="E131_1" pos="39.67" period="300.00" file="Nb.xml"/>
    <inductionLoop id="Det_01001305" lane="E131_0" pos="38.99" period="300.00" file="Nb.xml"/>
	<inductionLoop id="Det_01001400" lane="E131_5" pos="60.00" period="300.00" file="Nb.xml"/>
    <inductionLoop id="Det_01001401" lane="E131_4" pos="59.64" period="300.00" file="Nb.xml"/>
    <inductionLoop id="Det_01001402" lane="E131_3" pos="59.41" period="300.00" file="Nb.xml"/>
    <inductionLoop id="Det_01001403" lane="E131_2" pos="59.05" period="300.00" file="Nb.xml"/>
    <inductionLoop id="Det_01001404" lane="E131_1" pos="58.54" period="300.00" file="Nb.xml"/>
    <inductionLoop id="Det_01001405" lane="E131_0" pos="58.37" period="300.00" file="Nb.xml"/>
	<inductionLoop id="Det_01001500" lane="E131_5" pos="80.00" period="300.00" file="Nb.xml"/>
    <inductionLoop id="Det_01001501" lane="E131_4" pos="79.63" period="300.00" file="Nb.xml"/>
    <inductionLoop id="Det_01001502" lane="E131_3" pos="79.04" period="300.00" file="Nb.xml"/>
    <inductionLoop id="Det_01001503" lane="E131_2" pos="78.46" period="300.00" file="Nb.xml"/>
    <inductionLoop id="Det_01001504" lane="E131_1" pos="78.21" period="300.00" file="Nb.xml"/>
    <inductionLoop id="Det_01001505" lane="E131_0" pos="77.57" period="300.00" file="Nb.xml"/>
	<inductionLoop id="Det_01001600" lane="E129_5" pos="3.50" period="300.00" file="Nb.xml"/>
    <inductionLoop id="Det_01001601" lane="E129_4" pos="3.54" period="300.00" file="Nb.xml"/>
    <inductionLoop id="Det_01001602" lane="E129_3" pos="3.14" period="300.00" file="Nb.xml"/>
    <inductionLoop id="Det_01001603" lane="E129_2" pos="3.13" period="300.00" file="Nb.xml"/>
    <inductionLoop id="Det_01001604" lane="E129_1" pos="2.83" period="300.00" file="Nb.xml"/>
    <inductionLoop id="Det_01001605" lane="E129_0" pos="2.96" period="300.00" file="Nb.xml"/>
	<inductionLoop id="Det_01001700" lane="E129_5" pos="23.50" period="300.00" file="Nb.xml"/>
    <inductionLoop id="Det_01001701" lane="E129_4" pos="23.33" period="300.00" file="Nb.xml"/>
    <inductionLoop id="Det_01001702" lane="E129_3" pos="23.35" period="300.00" file="Nb.xml"/>
    <inductionLoop id="Det_01001703" lane="E129_2" pos="23.19" period="300.00" file="Nb.xml"/>
    <inductionLoop id="Det_01001704" lane="E129_1" pos="22.87" period="300.00" file="Nb.xml"/>
    <inductionLoop id="Det_01001705" lane="E129_0" pos="23.09" period="300.00" file="Nb.xml"/>
	<inductionLoop id="Det_01001800" lane="E125_4" pos="0.00" period="300.00" file="Nb.xml"/>
    <inductionLoop id="Det_01001801" lane="E125_3" pos="0.17" period="300.00" file="Nb.xml"/>
    <inductionLoop id="Det_01001802" lane="E125_2" pos="0.30" period="300.00" file="Nb.xml"/>    
	<inductionLoop id="Det_01001803" lane="E125_1" pos="0.39" period="300.00" file="Nb.xml"/>
    <inductionLoop id="Det_01001804" lane="E125_0" pos="0.68" period="300.00" file="Nb.xml"/>
	<inductionLoop id="Det_01001900" lane="E125_4" pos="20.00" period="300.00" file="Nb.xml"/>
    <inductionLoop id="Det_01001901" lane="E125_3" pos="19.87" period="300.00" file="Nb.xml"/>
    <inductionLoop id="Det_01001902" lane="E125_2" pos="19.69" period="300.00" file="Nb.xml"/>
    <inductionLoop id="Det_01001903" lane="E125_1" pos="19.39" period="300.00" file="Nb.xml"/>
    <inductionLoop id="Det_01001904" lane="E125_0" pos="19.15" period="300.00" file="Nb.xml"/>
	<inductionLoop id="Det_01002000" lane="E125_4" pos="40.00" period="300.00" file="Nb.xml"/>
    <inductionLoop id="Det_01002001" lane="E125_3" pos="39.93" period="300.00" file="Nb.xml"/>
    <inductionLoop id="Det_01002002" lane="E125_2" pos="39.55" period="300.00" file="Nb.xml"/>
    <inductionLoop id="Det_01002003" lane="E125_1" pos="39.78" period="300.00" file="Nb.xml"/>
    <inductionLoop id="Det_01002004" lane="E125_0" pos="39.68" period="300.00" file="Nb.xml"/>
	<inductionLoop id="Det_01002100" lane="E125_4" pos="60.00" period="300.00" file="Nb.xml"/>
    <inductionLoop id="Det_01002101" lane="E125_3" pos="59.98" period="300.00" file="Nb.xml"/>
    <inductionLoop id="Det_01002102" lane="E125_2" pos="59.71" period="300.00" file="Nb.xml"/>
    <inductionLoop id="Det_01002103" lane="E125_1" pos="59.70" period="300.00" file="Nb.xml"/>
    <inductionLoop id="Det_01002104" lane="E125_0" pos="59.47" period="300.00" file="Nb.xml"/>
	<inductionLoop id="Det_01002200" lane="E114_4" pos="14.00" period="300.00" file="Nb.xml"/>
    <inductionLoop id="Det_01002201" lane="E114_3" pos="13.78" period="300.00" file="Nb.xml"/>
    <inductionLoop id="Det_01002202" lane="E114_2" pos="13.50" period="300.00" file="Nb.xml"/>
    <inductionLoop id="Det_01002203" lane="E114_1" pos="13.34" period="300.00" file="Nb.xml"/>
    <inductionLoop id="Det_01002204" lane="E114_0" pos="13.43" period="300.00" file="Nb.xml"/>
	<inductionLoop id="Det_01002300" lane="E114_4" pos="34.00" period="300.00" file="Nb.xml"/>
    <inductionLoop id="Det_01002301" lane="E114_3" pos="33.67" period="300.00" file="Nb.xml"/>
    <inductionLoop id="Det_01002302" lane="E114_2" pos="33.15" period="300.00" file="Nb.xml"/>
    <inductionLoop id="Det_01002303" lane="E114_1" pos="32.96" period="300.00" file="Nb.xml"/>
    <inductionLoop id="Det_01002304" lane="E114_0" pos="32.82" period="300.00" file="Nb.xml"/>
	<inductionLoop id="Det_01002400" lane="E118_5" pos="0.00" period="300.00" file="Nb.xml"/>
    <inductionLoop id="Det_01002401" lane="E118_4" pos="0.41" period="300.00" file="Nb.xml"/>
    <inductionLoop id="Det_01002402" lane="E118_3" pos="0.40" period="300.00" file="Nb.xml"/>
    <inductionLoop id="Det_01002403" lane="E118_2" pos="0.36" period="300.00" file="Nb.xml"/>
    <inductionLoop id="Det_01002404" lane="E118_1" pos="0.60" period="300.00" file="Nb.xml"/>
    <inductionLoop id="Det_01002405" lane="E118_0" pos="0.47" period="300.00" file="Nb.xml"/>
	<inductionLoop id="Det_01002500" lane="E118_5" pos="20.00" period="300.00" file="Nb.xml"/>
    <inductionLoop id="Det_01002501" lane="E118_4" pos="20.00" period="300.00" file="Nb.xml"/>
    <inductionLoop id="Det_01002502" lane="E118_3" pos="19.83" period="300.00" file="Nb.xml"/>
    <inductionLoop id="Det_01002503" lane="E118_2" pos="19.92" period="300.00" file="Nb.xml"/>
    <inductionLoop id="Det_01002504" lane="E118_1" pos="20.14" period="300.00" file="Nb.xml"/>
    <inductionLoop id="Det_01002505" lane="E118_0" pos="19.83" period="300.00" file="Nb.xml"/>
	<inductionLoop id="Det_01002600" lane="E118_5" pos="40.00" period="300.00" file="Nb.xml"/>
    <inductionLoop id="Det_01002601" lane="E118_4" pos="39.94" period="300.00" file="Nb.xml"/>
    <inductionLoop id="Det_01002602" lane="E118_3" pos="39.67" period="300.00" file="Nb.xml"/>
    <inductionLoop id="Det_01002603" lane="E118_2" pos="39.69" period="300.00" file="Nb.xml"/>
    <inductionLoop id="Det_01002604" lane="E118_1" pos="39.57" period="300.00" file="Nb.xml"/>
    <inductionLoop id="Det_01002605" lane="E118_0" pos="39.72" period="300.00" file="Nb.xml"/>
	<inductionLoop id="Det_01002700" lane="E121_5" pos="5.00" period="300.00" file="Nb.xml"/>
    <inductionLoop id="Det_01002701" lane="E121_4" pos="5.01" period="300.00" file="Nb.xml"/>
    <inductionLoop id="Det_01002702" lane="E121_3" pos="4.75" period="300.00" file="Nb.xml"/>
    <inductionLoop id="Det_01002703" lane="E121_2" pos="4.72" period="300.00" file="Nb.xml"/>
    <inductionLoop id="Det_01002704" lane="E121_1" pos="4.91" period="300.00" file="Nb.xml"/>
    <inductionLoop id="Det_01002705" lane="E121_0" pos="5.08" period="300.00" file="Nb.xml"/>
	<inductionLoop id="Det_01002800" lane="E121_5" pos="25.00" period="300.00" file="Nb.xml"/>
    <inductionLoop id="Det_01002801" lane="E121_4" pos="24.99" period="300.00" file="Nb.xml"/>
    <inductionLoop id="Det_01002802" lane="E121_3" pos="24.69" period="300.00" file="Nb.xml"/>
    <inductionLoop id="Det_01002803" lane="E121_2" pos="24.54" period="300.00" file="Nb.xml"/>
    <inductionLoop id="Det_01002804" lane="E121_1" pos="24.50" period="300.00" file="Nb.xml"/>
    <inductionLoop id="Det_01002805" lane="E121_0" pos="24.57" period="300.00" file="Nb.xml"/>
	<inductionLoop id="Det_01002900" lane="E115_5" pos="9.00" period="300.00" file="Nb.xml"/>
    <inductionLoop id="Det_01002901" lane="E115_4" pos="8.78" period="300.00" file="Nb.xml"/>
    <inductionLoop id="Det_01002902" lane="E115_3" pos="8.86" period="300.00" file="Nb.xml"/>
    <inductionLoop id="Det_01002903" lane="E115_2" pos="8.86" period="300.00" file="Nb.xml"/>
    <inductionLoop id="Det_01002904" lane="E115_1" pos="8.63" period="300.00" file="Nb.xml"/>
    <inductionLoop id="Det_01002905" lane="E115_0" pos="8.75" period="300.00" file="Nb.xml"/>
	<inductionLoop id="Det_01003000" lane="E112_2" pos="0.00" period="300.00" file="Nb.xml"/>
    <inductionLoop id="Det_01003001" lane="E112_1" pos="0.38" period="300.00" file="Nb.xml"/>
    <inductionLoop id="Det_01003002" lane="E112_0" pos="0.14" period="300.00" file="Nb.xml"/>
    <inductionLoop id="Det_01003003" lane="E116_1" pos="0.28" period="300.00" file="Nb.xml"/>
    <inductionLoop id="Det_01003004" lane="E116_0" pos="0.45" period="300.00" file="Nb.xml"/>
	<inductionLoop id="Det_01003100" lane="E112_2" pos="25.00" period="300.00" file="Nb.xml"/>
    <inductionLoop id="Det_01003101" lane="E112_1" pos="24.91" period="300.00" file="Nb.xml"/>
    <inductionLoop id="Det_01003102" lane="E112_0" pos="24.94" period="300.00" file="Nb.xml"/>
	<inductionLoop id="Det_01003200" lane="E112_2" pos="50.14" period="300.00" file="Nb.xml" friendlyPos="1"/>
    <inductionLoop id="Det_01003201" lane="E112_1" pos="49.88" period="300.00" file="Nb.xml"/>
    <inductionLoop id="Det_01003202" lane="E112_0" pos="49.73" period="300.00" file="Nb.xml"/>
	
	<!-- Eb Detectors -->
	<inductionLoop id="Det_02000000" lane="E67_1" pos="155.00" period="300.00" file="Eb.xml"/>
    <inductionLoop id="Det_02000001" lane="E67_0" pos="155.30" period="300.00" file="Eb.xml"/>
    <inductionLoop id="Det_02000100" lane="E67_1" pos="175.00" period="300.00" file="Eb.xml"/>
    <inductionLoop id="Det_02000101" lane="E67_0" pos="175.45" period="300.00" file="Eb.xml"/>
    <inductionLoop id="Det_02000200" lane="E67_1" pos="195.00" period="300.00" file="Eb.xml"/>
    <inductionLoop id="Det_02000201" lane="E67_0" pos="195.40" period="300.00" file="Eb.xml"/>
    <inductionLoop id="Det_02000300" lane="E67_1" pos="215.00" period="300.00" file="Eb.xml"/>
    <inductionLoop id="Det_02000301" lane="E67_0" pos="215.46" period="300.00" file="Eb.xml"/>
    <inductionLoop id="Det_02000400" lane="E67_1" pos="235.00" period="300.00" file="Eb.xml"/>
    <inductionLoop id="Det_02000401" lane="E67_0" pos="235.41" period="300.00" file="Eb.xml"/>
    <inductionLoop id="Det_02000500" lane="E67_1" pos="255.00" period="300.00" file="Eb.xml"/>
    <inductionLoop id="Det_02000501" lane="E67_0" pos="255.36" period="300.00" file="Eb.xml"/>
    <inductionLoop id="Det_02000600" lane="E67_1" pos="275.00" period="300.00" file="Eb.xml"/>
    <inductionLoop id="Det_02000601" lane="E67_0" pos="275.31" period="300.00" file="Eb.xml"/>
    <inductionLoop id="Det_02000700" lane="E67_1" pos="295.00" period="300.00" file="Eb.xml"/>
    <inductionLoop id="Det_02000701" lane="E67_0" pos="295.29" period="300.00" file="Eb.xml"/>
    <inductionLoop id="Det_02000800" lane="E67_1" pos="315.00" period="300.00" file="Eb.xml"/>
    <inductionLoop id="Det_02000801" lane="E67_0" pos="315.26" period="300.00" file="Eb.xml"/>
    <inductionLoop id="Det_02000900" lane="E67_1" pos="335.00" period="300.00" file="Eb.xml"/>
    <inductionLoop id="Det_02000901" lane="E67_0" pos="335.19" period="300.00" file="Eb.xml"/>
    <inductionLoop id="Det_02001000" lane="E67_1" pos="355.00" period="300.00" file="Eb.xml"/>
    <inductionLoop id="Det_02001001" lane="E67_0" pos="355.24" period="300.00" file="Eb.xml"/>
    <inductionLoop id="Det_02001100" lane="E67_1" pos="375.00" period="300.00" file="Eb.xml"/>
    <inductionLoop id="Det_02001101" lane="E67_0" pos="375.08" period="300.00" file="Eb.xml"/>
    <inductionLoop id="Det_02001200" lane="E67_1" pos="395.00" period="300.00" file="Eb.xml"/>
    <inductionLoop id="Det_02001201" lane="E67_0" pos="395.01" period="300.00" file="Eb.xml"/>
    <inductionLoop id="Det_02001300" lane="E67_1" pos="415.00" period="300.00" file="Eb.xml"/>
    <inductionLoop id="Det_02001301" lane="E67_0" pos="415.00" period="300.00" file="Eb.xml"/>
    <inductionLoop id="Det_02001400" lane="E68_2" pos="11.00" period="300.00" file="Eb.xml"/>
    <inductionLoop id="Det_02001401" lane="E68_1" pos="11.02" period="300.00" file="Eb.xml"/>
    <inductionLoop id="Det_02001402" lane="E68_0" pos="11.03" period="300.00" file="Eb.xml"/>
    <inductionLoop id="Det_02001500" lane="E69_1" pos="6.00" period="300.00" file="Eb.xml"/>
    <inductionLoop id="Det_02001501" lane="E69_0" pos="6.04" period="300.00" file="Eb.xml"/>
    <inductionLoop id="Det_02001600" lane="E69_1" pos="26.00" period="300.00" file="Eb.xml"/>
    <inductionLoop id="Det_02001601" lane="E69_0" pos="25.99" period="300.00" file="Eb.xml"/>
    <inductionLoop id="Det_02001700" lane="E69_1" pos="46.00" period="300.00" file="Eb.xml"/>
    <inductionLoop id="Det_02001701" lane="E69_0" pos="46.01" period="300.00" file="Eb.xml"/>
    <inductionLoop id="Det_02001800" lane="E69_1" pos="66.00" period="300.00" file="Eb.xml"/>
    <inductionLoop id="Det_02001801" lane="E69_0" pos="66.03" period="300.00" file="Eb.xml"/>
    <inductionLoop id="Det_02001900" lane="E69_1" pos="86.00" period="300.00" file="Eb.xml"/>
    <inductionLoop id="Det_02001901" lane="E69_0" pos="86.04" period="300.00" file="Eb.xml"/>
    <inductionLoop id="Det_02002000" lane="E25_2" pos="6.04" period="300.00" file="Eb.xml"/>
    <inductionLoop id="Det_02002001" lane="E25_1" pos="6.02" period="300.00" file="Eb.xml"/>
    <inductionLoop id="Det_02002002" lane="E25_0" pos="6.00" period="300.00" file="Eb.xml"/>
    <inductionLoop id="Det_02002100" lane="E26_3" pos="0.00" period="300.00" file="Eb.xml"/>
    <inductionLoop id="Det_02002101" lane="E26_2" pos="0.00" period="300.00" file="Eb.xml"/>
    <inductionLoop id="Det_02002102" lane="E26_1" pos="0.00" period="300.00" file="Eb.xml"/>
    <inductionLoop id="Det_02002103" lane="E26_0" pos="0.00" period="300.00" file="Eb.xml"/>
    <inductionLoop id="Det_02002200" lane="E70_4" pos="5.50" period="300.00" file="Eb.xml"/>
    <inductionLoop id="Det_02002201" lane="E70_3" pos="5.48" period="300.00" file="Eb.xml"/>
    <inductionLoop id="Det_02002202" lane="E70_2" pos="5.48" period="300.00" file="Eb.xml"/>
    <inductionLoop id="Det_02002203" lane="E70_1" pos="5.46" period="300.00" file="Eb.xml"/>
    <inductionLoop id="Det_02002204" lane="E70_0" pos="5.44" period="300.00" file="Eb.xml"/>
    <inductionLoop id="Det_02002300" lane="E70_4" pos="25.50" period="300.00" file="Eb.xml"/>
    <inductionLoop id="Det_02002301" lane="E70_3" pos="25.51" period="300.00" file="Eb.xml"/>
    <inductionLoop id="Det_02002302" lane="E70_2" pos="25.51" period="300.00" file="Eb.xml"/>
    <inductionLoop id="Det_02002303" lane="E70_1" pos="25.49" period="300.00" file="Eb.xml"/>
    <inductionLoop id="Det_02002304" lane="E70_0" pos="25.48" period="300.00" file="Eb.xml"/>
    <inductionLoop id="Det_02002400" lane="E70_4" pos="45.50" period="300.00" file="Eb.xml"/>
    <inductionLoop id="Det_02002401" lane="E70_3" pos="45.50" period="300.00" file="Eb.xml"/>
    <inductionLoop id="Det_02002402" lane="E70_2" pos="45.52" period="300.00" file="Eb.xml"/>
    <inductionLoop id="Det_02002403" lane="E70_1" pos="45.49" period="300.00" file="Eb.xml"/>
    <inductionLoop id="Det_02002404" lane="E70_0" pos="45.49" period="300.00" file="Eb.xml"/>
    <inductionLoop id="Det_02002500" lane="E70_4" pos="65.50" period="300.00" file="Eb.xml"/>
    <inductionLoop id="Det_02002501" lane="E70_3" pos="65.48" period="300.00" file="Eb.xml"/>
    <inductionLoop id="Det_02002502" lane="E70_2" pos="65.47" period="300.00" file="Eb.xml"/>
    <inductionLoop id="Det_02002503" lane="E70_1" pos="65.42" period="300.00" file="Eb.xml"/>
    <inductionLoop id="Det_02002504" lane="E70_0" pos="65.39" period="300.00" file="Eb.xml"/>
    <inductionLoop id="Det_02002600" lane="E70_4" pos="85.50" period="300.00" file="Eb.xml"/>
    <inductionLoop id="Det_02002601" lane="E70_3" pos="85.51" period="300.00" file="Eb.xml"/>
    <inductionLoop id="Det_02002602" lane="E70_2" pos="85.51" period="300.00" file="Eb.xml"/>
    <inductionLoop id="Det_02002603" lane="E70_1" pos="85.50" period="300.00" file="Eb.xml"/>
    <inductionLoop id="Det_02002604" lane="E70_0" pos="85.52" period="300.00" file="Eb.xml"/>
    <inductionLoop id="Det_02002700" lane="E71_3" pos="13.76" period="300.00" file="Eb.xml"/>
    <inductionLoop id="Det_02002701" lane="E71_2" pos="13.78" period="300.00" file="Eb.xml"/>
    <inductionLoop id="Det_02002702" lane="E71_1" pos="13.77" period="300.00" file="Eb.xml"/>
    <inductionLoop id="Det_02002703" lane="E71_0" pos="13.78" period="300.00" file="Eb.xml"/>
    <inductionLoop id="Det_02002704" lane="E72_0" pos="13.74" period="300.00" file="Eb.xml"/>
    <inductionLoop id="Det_02002800" lane="E71_3" pos="33.48" period="300.00" file="Eb.xml" friendlyPos="1"/>
    <inductionLoop id="Det_02002801" lane="E71_2" pos="33.38" period="300.00" file="Eb.xml"/>
    <inductionLoop id="Det_02002802" lane="E71_1" pos="33.33" period="300.00" file="Eb.xml"/>
    <inductionLoop id="Det_02002803" lane="E71_0" pos="33.31" period="300.00" file="Eb.xml"/>
    
	<!-- Wb Detectors -->
	<inductionLoop id="Det_03000000" lane="E44_1" pos="160" period="300.00" file="Wb.xml"/>
	<inductionLoop id="Det_03000001" lane="E44_0" pos="162.10" period="300.00" file="Wb.xml"/>
    <inductionLoop id="Det_03000100" lane="E44_1" pos="180" period="300.00" file="Wb.xml"/>
	<inductionLoop id="Det_03000101" lane="E44_0" pos="182.26" period="300.00" file="Wb.xml"/>
    <inductionLoop id="Det_03000200" lane="E44_1" pos="200" period="300.00" file="Wb.xml"/>
	<inductionLoop id="Det_03000201" lane="E44_0" pos="207" period="300.00" file="Wb.xml"/>
    <inductionLoop id="Det_03000300" lane="E44_1" pos="220" period="300.00" file="Wb.xml"/>
	<inductionLoop id="Det_03000301" lane="E44_0" pos="222.39" period="300.00" file="Wb.xml"/>
    <inductionLoop id="Det_03000400" lane="E44_1" pos="240" period="300.00" file="Wb.xml"/>
	<inductionLoop id="Det_03000401" lane="E44_0" pos="241.88" period="300.00" file="Wb.xml"/>
    <inductionLoop id="Det_03000500" lane="E44_1" pos="260" period="300.00" file="Wb.xml"/>
	<inductionLoop id="Det_03000501" lane="E44_0" pos="262.42" period="300.00" file="Wb.xml"/>
    <inductionLoop id="Det_03000600" lane="E44_1" pos="280" period="300.00" file="Wb.xml"/>
	<inductionLoop id="Det_03000601" lane="E44_0" pos="281.99" period="300.00" file="Wb.xml"/>
    <inductionLoop id="Det_03000700" lane="E44_1" pos="300" period="300.00" file="Wb.xml"/>
	<inductionLoop id="Det_03000701" lane="E44_0" pos="301.50" period="300.00" file="Wb.xml"/>
    <inductionLoop id="Det_03000800" lane="E44_1" pos="320" period="300.00" file="Wb.xml"/>
	<inductionLoop id="Det_03000801" lane="E44_0" pos="321.93" period="300.00" file="Wb.xml"/>
    <inductionLoop id="Det_03000900" lane="E44_1" pos="340" period="300.00" file="Wb.xml"/>
	<inductionLoop id="Det_03000901" lane="E44_0" pos="341.71" period="300.00" file="Wb.xml"/>
    <inductionLoop id="Det_03001000" lane="E44_1" pos="360" period="300.00" file="Wb.xml"/>
	<inductionLoop id="Det_03001001" lane="E44_0" pos="362.27" period="300.00" file="Wb.xml"/>
    <inductionLoop id="Det_03001100" lane="E44_1" pos="380" period="300.00" file="Wb.xml"/>
	<inductionLoop id="Det_03001101" lane="E44_0" pos="381.92" period="300.00" file="Wb.xml"/>
    <inductionLoop id="Det_03001200" lane="E44_1" pos="400" period="300.00" file="Wb.xml"/>