<?xml version="1.0" encoding="UTF-8"?>

<!-- generated on 2024-06-20 21:53:52 by Eclipse SUMO netedit Version 1.18.0
<configuration xmlns:xsi="http://www.w3.org/2001/XMLSchema-instance" xsi:noNamespaceSchemaLocation="http://sumo.dlr.de/xsd/neteditConfiguration.xsd">

    <input>
        <additional-files value="C:\Users\kwon\Desktop\test_e3\New_TestWay\New_detector.add.xml"/>
        <sumo-net-file value="C:\Users\kwon\Desktop\test_e3\New_TestWay\test.net.xml"/>
    </input>

    <output>
        <output-file value="C:\Users\kwon\Desktop\test_e3\New_TestWay\test.net.xml"/>
    </output>

    <processing>
        <geometry.min-radius.fix.railways value="false"/>
        <geometry.max-grade.fix value="false"/>
        <offset.disable-normalization value="true"/>
        <lefthand value="0"/>
    </processing>

    <junctions>
        <no-internal-links value="false"/>
        <no-turnarounds value="true"/>
        <junctions.corner-detail value="5"/>
        <junctions.limit-turn-speed value="5.50"/>
        <rectangular-lane-cut value="0"/>
    </junctions>

    <pedestrian>
        <walkingareas value="1"/>
    </pedestrian>

</configuration>
-->

<net version="1.16" junctionCornerDetail="5" walkingareas="true" limitTurnSpeed="5.50" xmlns:xsi="http://www.w3.org/2001/XMLSchema-instance" xsi:noNamespaceSchemaLocation="http://sumo.dlr.de/xsd/net_file.xsd">

    <location netOffset="0.00,0.00" convBoundary="-1453.12,-950.05,1452.63,993.93" origBoundary="-10000000000.00,-10000000000.00,10000000000.00,10000000000.00" projParameter="!"/>

    <edge id=":J105_w0" function="walkingarea">
        <lane id=":J105_w0_0" index="0" allow="pedestrian" speed="2.78" length="9.60" width="3.20" shape="1438.59,-739.88 1442.65,-734.93 1434.44,-744.75 1438.59,-739.88"/>
    </edge>
    <edge id=":J15_w0" function="walkingarea">
        <lane id=":J15_w0_0" index="0" allow="pedestrian" speed="2.78" length="6.40" width="3.20" shape="342.11,941.08 340.75,943.98 344.87,935.30 342.11,941.08"/>
    </edge>
    <edge id=":J17_w0" function="walkingarea">
        <lane id=":J17_w0_0" index="0" allow="pedestrian" speed="2.78" length="0.10" width="3.20" shape="336.46,993.93 331.34,997.77"/>
    </edge>
    <edge id=":J171_0" function="internal">
        <lane id=":J171_0_0" index="0" speed="13.89" length="0.11" shape="-396.10,-344.55 -396.26,-344.65"/>
        <lane id=":J171_0_1" index="1" speed="13.89" length="0.11" shape="-394.56,-347.36 -394.69,-347.43"/>
        <lane id=":J171_0_2" index="2" speed="13.89" length="0.11" shape="-393.03,-350.17 -393.12,-350.22"/>
        <lane id=":J171_0_3" index="3" speed="13.89" length="0.11" shape="-391.49,-352.98 -391.55,-353.01"/>
        <lane id=":J171_0_4" index="4" speed="13.89" length="0.11" shape="-389.96,-355.79 -389.98,-355.80"/>
    </edge>
    <edge id=":J171_w0" function="walkingarea">
        <lane id=":J171_w0_0" index="0" allow="pedestrian" speed="2.78" length="0.19" width="3.20" shape="-396.78,-343.11 -389.11,-357.15 -389.27,-357.24 -397.13,-343.30"/>
    </edge>
    <edge id=":J175_0" function="internal">
        <lane id=":J175_0_0" index="0" speed="8.93" length="3.89" shape="-527.10,-399.91 -528.08,-399.31 -528.70,-398.80 -529.17,-398.17 -529.74,-397.17"/>
    </edge>
    <edge id=":J175_1" function="internal">
        <lane id=":J175_1_0" index="0" speed="5.12" length="2.98" shape="-527.10,-399.91 -529.00,-399.13 -529.92,-399.23"/>
    </edge>
    <edge id=":J175_3" function="internal">
        <lane id=":J175_3_0" index="0" speed="5.12" length="3.98" shape="-529.92,-399.23 -530.40,-399.28 -531.33,-400.37 -531.77,-402.39"/>
    </edge>
    <edge id=":J175_2" function="internal">
        <lane id=":J175_2_0" index="0" speed="8.51" length="3.88" shape="-532.55,-398.69 -532.03,-399.70 -531.77,-400.46 -531.70,-401.25 -531.77,-402.39"/>
    </edge>
    <edge id=":J175_w0" function="walkingarea">
        <lane id=":J175_w0_0" index="0" allow="pedestrian" speed="2.78" length="4.54" width="3.20" shape="-526.30,-398.53 -527.91,-401.29 -529.08,-400.89 -529.51,-400.99 -529.84,-401.30 -530.06,-401.81 -530.18,-402.52 -533.37,-402.26 -533.32,-401.18 -533.36,-400.79 -533.48,-400.42 -533.67,-400.00 -533.96,-399.45 -528.33,-396.41 -527.77,-397.37 -527.53,-397.67 -527.23,-397.94 -526.84,-398.20"/>
    </edge>
    <edge id=":J176_w0" function="walkingarea">
        <lane id=":J176_w0_0" index="0" allow="pedestrian" speed="2.78" length="3.20" width="3.20" shape="-536.51,-388.00 -539.33,-389.52 -533.69,-386.48 -536.51,-388.00"/>
    </edge>
    <edge id=":J182_0" function="internal">
        <lane id=":J182_0_0" index="0" speed="4.03" length="1.65" shape="-514.54,-406.37 -514.93,-406.53 -515.33,-406.58 -515.72,-406.52 -516.11,-406.35"/>
    </edge>
    <edge id=":J183_0" function="internal">
        <lane id=":J183_0_0" index="0" speed="4.06" length="1.56" shape="-532.83,-415.55 -532.90,-415.94 -533.06,-416.29 -533.31,-416.58 -533.64,-416.81"/>
    </edge>
    <edge id=":J192_w0" function="walkingarea">
        <lane id=":J192_w0_0" index="0" allow="pedestrian" speed="2.78" length="32.00" width="3.20" shape="-1453.12,-950.05 -1445.37,-964.05 -1462.53,-933.31 -1453.12,-950.05"/>
    </edge>
    <edge id=":J198_0" function="internal">
        <lane id=":J198_0_0" index="0" speed="13.89" length="0.75" shape="-228.77,-256.75 -228.11,-255.97"/>
        <lane id=":J198_0_1" index="1" speed="13.89" length="0.75" shape="-231.17,-254.63 -230.60,-253.95"/>
        <lane id=":J198_0_2" index="2" speed="13.89" length="0.75" shape="-233.57,-252.51 -233.08,-251.93"/>
        <lane id=":J198_0_3" index="3" speed="13.89" length="0.75" shape="-235.96,-250.39 -235.56,-249.92"/>
        <lane id=":J198_0_4" index="4" speed="13.89" length="0.75" shape="-238.36,-248.27 -238.05,-247.90"/>
    </edge>
    <edge id=":J198_w0" function="walkingarea">
        <lane id=":J198_w0_0" index="0" allow="pedestrian" speed="2.78" length="1.02" width="3.20" shape="-239.29,-246.89 -226.87,-256.98 -227.57,-257.81 -239.56,-247.21"/>
    </edge>
    <edge id=":J200_0" function="internal">
        <lane id=":J200_0_0" index="0" speed="13.89" length="0.29" shape="-154.43,-125.02 -154.36,-124.83"/>
        <lane id=":J200_0_1" index="1" speed="13.89" length="0.29" shape="-157.44,-123.94 -157.35,-123.71"/>
        <lane id=":J200_0_2" index="2" speed="13.89" length="0.29" shape="-160.45,-122.87 -160.35,-122.60"/>
        <lane id=":J200_0_3" index="3" speed="13.89" length="0.29" shape="-163.47,-121.79 -163.35,-121.48"/>
        <lane id=":J200_0_4" index="4" speed="13.89" length="0.29" shape="-166.48,-120.72 -166.35,-120.36"/>
    </edge>
    <edge id=":J200_w0" function="walkingarea">
        <lane id=":J200_w0_0" index="0" allow="pedestrian" speed="2.78" length="0.20" width="3.20" shape="-167.85,-119.80 -152.86,-125.39 -152.92,-125.56 -167.99,-120.18"/>
    </edge>
    <edge id=":J223_0" function="internal">
        <lane id=":J223_0_0" index="0" speed="13.89" length="1.10" shape="-313.75,-337.64 -313.23,-337.34 -312.88,-337.12 -312.55,-336.88 -312.07,-336.53"/>
        <lane id=":J223_0_1" index="1" speed="13.89" length="1.10" shape="-315.36,-334.87 -314.93,-334.62 -314.65,-334.45 -314.37,-334.25 -313.98,-333.96"/>
        <lane id=":J223_0_2" index="2" speed="13.89" length="1.10" shape="-316.96,-332.10 -316.63,-331.91 -316.41,-331.77 -316.20,-331.62 -315.89,-331.40"/>
        <lane id=":J223_0_3" index="3" speed="13.89" length="1.10" shape="-318.57,-329.34 -318.34,-329.20 -318.18,-329.10 -318.03,-328.99 -317.81,-328.83"/>
        <lane id=":J223_0_4" index="4" speed="13.89" length="1.10" shape="-320.18,-326.57 -320.04,-326.49 -319.94,-326.43 -319.85,-326.36 -319.72,-326.27"/>
        <lane id=":J223_0_5" index="5" speed="13.89" length="1.10" shape="-321.79,-323.80 -321.74,-323.78 -321.71,-323.76 -321.68,-323.73 -321.63,-323.70"/>
    </edge>
    <edge id=":J223_w0" function="walkingarea">
        <lane id=":J223_w0_0" index="0" allow="pedestrian" speed="2.78" length="2.02" width="3.20" shape="-322.59,-322.42 -311.11,-337.81 -311.77,-338.29 -312.00,-338.45 -312.24,-338.61 -312.54,-338.79 -312.94,-339.02 -322.59,-322.42"/>
    </edge>
    <edge id=":J47_w0" function="walkingarea">
        <lane id=":J47_w0_0" index="0" allow="pedestrian" speed="2.78" length="16.00" width="3.20" shape="-1213.62,586.80 -1216.03,577.51 -1211.19,596.09 -1213.62,586.80"/>
    </edge>
    <edge id=":J55_0" function="internal">
        <lane id=":J55_0_0" index="0" speed="13.89" length="0.27" shape="-1210.51,597.89 -1210.59,597.91 -1210.64,597.92 -1210.69,597.95 -1210.76,597.98"/>
    </edge>
    <edge id=":J95_0" function="internal">
        <lane id=":J95_0_0" index="0" speed="13.89" length="9.24" shape="853.73,-461.72 851.84,-463.62 851.00,-465.37 850.15,-467.12 848.25,-469.00"/>
    </edge>
    <edge id=":J95_1" function="internal">
        <lane id=":J95_1_0" index="0" speed="11.22" length="9.28" shape="853.73,-461.72 851.82,-463.51 851.05,-465.19 850.73,-467.20 850.21,-469.93"/>
    </edge>
    <edge id=":J95_w0" function="walkingarea">
        <lane id=":J95_w0_0" index="0" allow="pedestrian" speed="2.78" length="6.73" width="3.20" shape="852.79,-460.43 854.67,-463.02 853.00,-464.49 852.12,-465.87 851.75,-467.28 851.63,-468.86 851.48,-470.74 851.04,-473.06 847.94,-472.24 848.01,-471.61 847.92,-471.47 847.76,-471.45 847.51,-471.54 847.18,-471.74 844.51,-469.72 846.53,-468.03 847.78,-466.52 848.66,-465.09 849.53,-463.66 850.78,-462.14"/>
    </edge>
    <edge id=":clusterJ100_J107_0" function="internal">
        <lane id=":clusterJ100_J107_0_0" index="0" speed="13.89" length="3.28" shape="1430.68,-722.71 1429.84,-722.21 1429.29,-721.84 1428.76,-721.42 1428.03,-720.79"/>
    </edge>
    <edge id=":clusterJ100_J107_1" function="internal">
        <lane id=":clusterJ100_J107_1_0" index="0" speed="13.89" length="3.94" shape="1428.89,-725.73 1425.93,-723.20"/>
        <lane id=":clusterJ100_J107_1_1" index="1" speed="13.89" length="3.94" shape="1426.86,-728.20 1423.82,-725.62"/>
    </edge>
    <edge id=":clusterJ100_J107_w0" function="walkingarea">
        <lane id=":clusterJ100_J107_w0_0" index="0" allow="pedestrian" speed="2.78" length="3.93" width="3.20" shape="1431.50,-721.33 1429.86,-724.08 1429.91,-724.49 1425.85,-729.44 1422.77,-726.82 1429.08,-719.58 1429.92,-720.30 1430.23,-720.54 1430.55,-720.76 1430.95,-721.01"/>
    </edge>
    <edge id=":clusterJ101_J103_0" function="internal">
        <lane id=":clusterJ101_J103_0_0" index="0" speed="13.89" length="3.17" shape="1383.22,-681.79 1382.51,-681.17 1382.04,-680.73 1381.58,-680.28 1380.93,-679.60"/>
    </edge>
    <edge id=":clusterJ101_J103_1" function="internal">
        <lane id=":clusterJ101_J103_1_0" index="0" speed="13.89" length="3.67" shape="1381.12,-684.20 1378.26,-681.80"/>
        <lane id=":clusterJ101_J103_1_1" index="1" speed="13.89" length="3.67" shape="1379.02,-686.61 1376.26,-684.30"/>
    </edge>
    <edge id=":clusterJ101_J103_w0" function="walkingarea">
        <lane id=":clusterJ101_J103_w0_0" index="0" allow="pedestrian" speed="2.78" length="3.86" width="3.20" shape="1384.27,-680.58 1377.97,-687.82 1375.27,-685.56 1379.25,-680.55 1379.77,-680.71 1382.08,-678.49 1382.86,-679.30 1383.14,-679.57 1383.43,-679.84 1383.79,-680.16"/>
    </edge>
    <edge id=":clusterJ102_J98_0" function="internal">
        <lane id=":clusterJ102_J98_0_0" index="0" speed="13.89" length="33.58" shape="995.10,-522.16 963.60,-510.36"/>
        <lane id=":clusterJ102_J98_0_1" index="1" speed="13.89" length="33.58" shape="994.24,-525.24 962.76,-513.45"/>
        <lane id=":clusterJ102_J98_0_2" index="2" speed="13.89" length="33.58" shape="994.24,-525.24 961.92,-516.54"/>
    </edge>
    <edge id=":clusterJ102_J98_w0" function="walkingarea">
        <lane id=":clusterJ102_J98_w0_0" index="0" allow="pedestrian" speed="2.78" length="33.64" width="3.20" shape="995.53,-520.62 993.81,-526.78 961.50,-518.08 964.02,-508.82 970.87,-510.91 975.81,-512.83 979.79,-514.67 983.77,-516.53 988.70,-518.48"/>
    </edge>
    <edge id=":clusterJ108_J110_0" function="internal">
        <lane id=":clusterJ108_J110_0_0" index="0" speed="13.89" length="32.57" shape="-1186.59,571.54 -1155.35,563.44"/>
        <lane id=":clusterJ108_J110_0_1" index="1" speed="13.89" length="32.57" shape="-1186.59,571.54 -1177.64,569.80 -1170.93,569.32 -1164.02,568.69 -1154.46,566.52"/>
        <lane id=":clusterJ108_J110_0_2" index="2" speed="13.89" length="32.57" shape="-1185.78,574.63 -1176.83,572.90 -1170.10,572.41 -1163.17,571.77 -1153.57,569.59"/>
        <lane id=":clusterJ108_J110_0_3" index="3" speed="13.89" length="32.57" shape="-1184.98,577.73 -1176.02,575.99 -1169.27,575.50 -1162.31,574.85 -1152.68,572.66"/>
    </edge>
    <edge id=":clusterJ108_J110_w0" function="walkingarea">
        <lane id=":clusterJ108_J110_w0_0" index="0" allow="pedestrian" speed="2.78" length="32.26" width="3.20" shape="-1152.23,574.20 -1155.80,561.91 -1186.99,569.99 -1184.58,579.28 -1177.77,577.80 -1172.64,577.15 -1168.36,576.91 -1164.08,576.63 -1158.99,575.88"/>
    </edge>
    <edge id=":clusterJ10_J7_0" function="internal">
        <lane id=":clusterJ10_J7_0_0" index="0" speed="13.89" length="11.03" shape="-88.38,178.07 -89.74,175.11 -91.43,173.43 -93.12,171.75 -94.48,168.79"/>
        <lane id=":clusterJ10_J7_0_1" index="1" speed="13.89" length="11.03" shape="-85.29,177.23 -86.66,174.27 -88.34,172.59 -90.03,170.91 -91.39,167.95"/>
        <lane id=":clusterJ10_J7_0_2" index="2" speed="13.89" length="11.03" shape="-85.29,177.23 -88.30,167.11"/>
    </edge>
    <edge id=":clusterJ10_J7_w0" function="walkingarea">
        <lane id=":clusterJ10_J7_w0_0" index="0" allow="pedestrian" speed="2.78" length="11.10" width="3.20" shape="-89.93,178.49 -83.75,176.81 -86.76,166.69 -96.02,169.21 -95.17,171.39 -94.12,172.81 -92.97,173.85 -91.83,174.89 -90.78,176.31"/>
    </edge>
    <edge id=":clusterJ111_J113_0" function="internal">
        <lane id=":clusterJ111_J113_0_0" index="0" speed="13.89" length="5.84" shape="-1097.86,546.75 -1096.22,546.21 -1095.14,545.71 -1094.12,545.10 -1092.63,544.20"/>
    </edge>
    <edge id=":clusterJ111_J113_1" function="internal">
        <lane id=":clusterJ111_J113_1_0" index="0" speed="13.89" length="5.03" shape="-1096.96,549.82 -1092.17,548.43"/>
        <lane id=":clusterJ111_J113_1_1" index="1" speed="13.89" length="5.03" shape="-1096.07,552.89 -1091.24,551.49"/>
        <lane id=":clusterJ111_J113_1_2" index="2" speed="13.89" length="5.03" shape="-1095.18,555.96 -1090.31,554.55"/>
    </edge>
    <edge id=":clusterJ111_J113_w0" function="walkingarea">
        <lane id=":clusterJ111_J113_w0_0" index="0" allow="pedestrian" speed="2.78" length="5.33" width="3.20" shape="-1089.84,556.08 -1092.64,546.90 -1091.83,545.59 -1093.42,542.82 -1095.16,543.87 -1095.77,544.24 -1096.40,544.55 -1097.20,544.86 -1098.30,545.21 -1094.73,557.50"/>
    </edge>
    <edge id=":clusterJ112_J39_J43_0" function="internal">
        <lane id=":clusterJ112_J39_J43_0_0" index="0" speed="13.89" length="39.83" shape="-1021.88,533.74 -1031.86,538.71 -1041.62,543.09 -1050.62,546.86 -1058.35,550.03"/>
        <lane id=":clusterJ112_J39_J43_0_1" index="1" speed="13.89" length="39.83" shape="-1023.35,530.89 -1033.30,535.85 -1042.96,540.19 -1051.88,543.92 -1059.58,547.08"/>
    </edge>
    <edge id=":clusterJ112_J39_J43_2" function="internal">
        <lane id=":clusterJ112_J39_J43_2_0" index="0" speed="13.89" length="39.00" shape="-1063.44,537.78 -1027.75,522.37"/>
        <lane id=":clusterJ112_J39_J43_2_1" index="1" speed="13.89" length="39.00" shape="-1062.21,540.73 -1026.28,525.21"/>
    </edge>
    <edge id=":clusterJ112_J39_J43_w0" function="walkingarea">
        <lane id=":clusterJ112_J39_J43_w0_0" index="0" allow="pedestrian" speed="2.78" length="31.32" width="3.20" shape="-1021.14,535.16 -1028.49,520.94 -1064.05,536.30 -1057.74,551.51 -1049.83,548.28 -1043.95,545.95 -1039.13,543.98 -1034.38,541.87 -1028.71,539.10"/>
    </edge>
    <edge id=":clusterJ115_J118_0" function="internal">
        <lane id=":clusterJ115_J118_0_0" index="0" speed="13.89" length="8.83" shape="-1017.04,511.48 -1014.53,510.72 -1012.79,510.24 -1011.12,509.61 -1008.81,508.40"/>
    </edge>
    <edge id=":clusterJ115_J118_1" function="internal">
        <lane id=":clusterJ115_J118_1_0" index="0" speed="13.89" length="11.53" shape="-1017.15,516.89 -1007.21,511.18"/>
        <lane id=":clusterJ115_J118_1_1" index="1" speed="13.89" length="11.53" shape="-1015.68,519.73 -1005.62,513.95"/>
    </edge>
    <edge id=":clusterJ115_J118_w0" function="walkingarea">
        <lane id=":clusterJ115_J118_w0_0" index="0" allow="pedestrian" speed="2.78" length="8.70" width="3.20" shape="-1004.82,515.34 -1009.60,507.01 -1012.40,508.42 -1013.44,508.78 -1014.52,509.07 -1015.82,509.43 -1017.55,509.96 -1016.54,513.00 -1017.89,515.46 -1014.95,521.15"/>
    </edge>
    <edge id=":clusterJ116_J119_0" function="internal">
        <lane id=":clusterJ116_J119_0_0" index="0" speed="13.89" length="14.39" shape="-958.23,474.27 -947.60,465.23"/>
        <lane id=":clusterJ116_J119_0_1" index="1" speed="13.89" length="14.39" shape="-956.36,476.87 -945.53,467.66"/>
        <lane id=":clusterJ116_J119_0_2" index="2" speed="13.89" length="14.39" shape="-954.49,479.47 -943.46,470.10"/>
        <lane id=":clusterJ116_J119_0_3" index="3" speed="13.89" length="14.39" shape="-954.49,479.47 -950.70,477.24 -947.80,476.18 -944.97,475.04 -941.39,472.54"/>
    </edge>
    <edge id=":clusterJ116_J119_w0" function="walkingarea">
        <lane id=":clusterJ116_J119_w0_0" index="0" allow="pedestrian" speed="2.78" length="13.96" width="3.20" shape="-940.35,473.76 -948.64,464.01 -959.16,472.97 -953.56,480.77 -950.87,479.07 -948.70,478.09 -946.81,477.44 -944.96,476.76 -942.89,475.66"/>
    </edge>
    <edge id=":clusterJ11_J14_0" function="internal">
        <lane id=":clusterJ11_J14_0_0" index="0" speed="13.89" length="119.92" shape="61.00,725.63 53.21,709.17 38.11,679.80 21.78,645.90 10.31,615.88"/>
        <lane id=":clusterJ11_J14_0_1" index="1" speed="13.89" length="119.92" shape="61.00,725.63 53.69,709.04 39.65,679.37 24.38,645.18 13.39,615.02"/>
        <lane id=":clusterJ11_J14_0_2" index="2" speed="13.89" length="119.92" shape="61.00,725.63 54.18,708.90 41.19,678.95 26.98,644.46 16.47,614.17"/>
        <lane id=":clusterJ11_J14_0_3" index="3" speed="13.89" length="119.92" shape="61.00,725.63 19.56,613.31"/>
        <lane id=":clusterJ11_J14_0_4" index="4" speed="13.89" length="119.92" shape="61.00,725.63 22.64,612.46"/>
        <lane id=":clusterJ11_J14_0_5" index="5" speed="13.89" length="119.92" shape="61.00,725.63 25.72,611.60"/>
        <lane id=":clusterJ11_J14_0_6" index="6" speed="13.89" length="119.92" shape="64.07,724.73 28.81,610.75"/>
    </edge>
    <edge id=":clusterJ11_J14_w0" function="walkingarea">
        <lane id=":clusterJ11_J14_w0_0" index="0" allow="pedestrian" speed="2.78" length="120.89" width="3.20" shape="59.47,726.08 65.61,724.28 30.35,610.32 8.76,616.30 14.35,631.13 23.32,650.14 33.99,671.23 44.69,692.30 53.74,711.29"/>
    </edge>
    <edge id=":clusterJ120_J121_0" function="internal">
        <lane id=":clusterJ120_J121_0_0" index="0" speed="13.89" length="38.10" shape="-928.95,449.38 -901.76,423.37"/>
        <lane id=":clusterJ120_J121_0_1" index="1" speed="13.89" length="38.10" shape="-926.88,451.81 -918.36,443.67 -912.91,436.93 -908.16,430.53 -901.76,423.37"/>
        <lane id=":clusterJ120_J121_0_2" index="2" speed="13.89" length="38.10" shape="-924.81,454.25 -916.22,446.05 -910.72,439.26 -905.93,432.82 -899.52,425.65"/>
        <lane id=":clusterJ120_J121_0_3" index="3" speed="13.89" length="38.10" shape="-922.74,456.69 -914.09,448.43 -908.52,441.59 -903.70,435.12 -897.27,427.93"/>
    </edge>
    <edge id=":clusterJ120_J121_w0" function="walkingarea">
        <lane id=":clusterJ120_J121_w0_0" index="0" allow="pedestrian" speed="2.78" length="37.62" width="3.20" shape="-896.15,429.07 -902.89,422.23 -929.99,448.16 -921.70,457.91 -915.66,452.38 -911.60,447.89 -908.57,443.88 -905.61,439.78 -901.79,435.03"/>
    </edge>
    <edge id=":clusterJ122_J123_0" function="internal">
        <lane id=":clusterJ122_J123_0_0" index="0" speed="13.89" length="39.07" shape="-824.56,347.33 -816.23,340.09 -807.74,333.94 -799.85,328.54 -793.28,323.53"/>
        <lane id=":clusterJ122_J123_0_1" index="1" speed="13.89" length="39.07" shape="-822.32,349.61 -793.28,323.53"/>
        <lane id=":clusterJ122_J123_0_2" index="2" speed="13.89" length="39.07" shape="-820.07,351.89 -791.18,325.95"/>
    </edge>
    <edge id=":clusterJ122_J123_w0" function="walkingarea">
        <lane id=":clusterJ122_J123_w0_0" index="0" allow="pedestrian" speed="2.78" length="39.31" width="3.20" shape="-790.13,327.16 -794.32,322.33 -825.69,346.19 -818.95,353.03"/>
    </edge>
    <edge id=":clusterJ124_J125_0" function="internal">
        <lane id=":clusterJ124_J125_0_0" index="0" speed="13.89" length="8.26" shape="-432.09,116.48 -424.96,112.67"/>
        <lane id=":clusterJ124_J125_0_1" index="1" speed="13.89" length="8.26" shape="-430.62,119.32 -423.56,115.55"/>
        <lane id=":clusterJ124_J125_0_2" index="2" speed="13.89" length="8.26" shape="-430.62,119.32 -428.24,118.62 -426.40,118.84 -424.56,119.07 -422.15,118.42"/>
    </edge>
    <edge id=":clusterJ124_J125_w0" function="walkingarea">
        <lane id=":clusterJ124_J125_w0_0" index="0" allow="pedestrian" speed="2.78" length="8.08" width="3.20" shape="-421.45,119.86 -425.66,111.23 -432.83,115.06 -429.88,120.74 -426.87,120.06 -425.68,120.27 -424.49,120.48 -423.14,120.44"/>
    </edge>
    <edge id=":clusterJ126_J127_0" function="internal">
        <lane id=":clusterJ126_J127_0_0" index="0" speed="13.89" length="27.09" shape="-407.49,104.14 -383.37,92.22"/>
        <lane id=":clusterJ126_J127_0_1" index="1" speed="13.89" length="27.09" shape="-406.09,107.02 -398.65,102.83 -393.50,99.09 -388.96,95.61 -383.37,92.22"/>
        <lane id=":clusterJ126_J127_0_2" index="2" speed="13.89" length="27.09" shape="-404.68,109.89 -397.23,105.70 -392.06,101.95 -387.52,98.47 -381.92,95.07"/>
    </edge>
    <edge id=":clusterJ126_J127_w0" function="walkingarea">
        <lane id=":clusterJ126_J127_w0_0" index="0" allow="pedestrian" speed="2.78" length="26.90" width="3.20" shape="-381.19,96.50 -384.10,90.80 -408.19,102.70 -403.98,111.33 -398.89,108.59 -395.33,106.21 -392.55,103.99 -389.77,101.76 -386.24,99.33"/>
    </edge>
    <edge id=":clusterJ128_J129_0" function="internal">
        <lane id=":clusterJ128_J129_0_0" index="0" speed="13.89" length="59.76" shape="-322.62,61.27 -271.36,30.39"/>
        <lane id=":clusterJ128_J129_0_1" index="1" speed="13.89" length="59.76" shape="-321.17,64.12 -269.93,33.25"/>
        <lane id=":clusterJ128_J129_0_2" index="2" speed="13.89" length="59.76" shape="-321.17,64.12 -268.50,36.12"/>
        <lane id=":clusterJ128_J129_0_3" index="3" speed="13.89" length="59.76" shape="-321.17,64.12 -267.07,38.98"/>
        <lane id=":clusterJ128_J129_0_4" index="4" speed="13.89" length="59.76" shape="-321.17,64.12 -311.87,60.30 -298.44,55.48 -282.49,49.40 -265.64,41.84"/>
    </edge>
    <edge id=":clusterJ128_J129_w0" function="walkingarea">
        <lane id=":clusterJ128_J129_w0_0" index="0" allow="pedestrian" speed="2.78" length="59.84" width="3.20" shape="-264.92,43.27 -272.08,28.96 -323.35,59.85 -320.44,65.55 -310.15,60.74 -301.11,57.22 -292.71,54.35 -284.30,51.50 -275.25,48.02"/>
    </edge>
    <edge id=":clusterJ12_J9_0" function="internal">
        <lane id=":clusterJ12_J9_0_0" index="0" speed="13.89" length="155.34" shape="-16.40,459.65 -52.90,308.66"/>
        <lane id=":clusterJ12_J9_0_1" index="1" speed="13.89" length="155.34" shape="-13.31,458.80 -49.81,307.82"/>
    </edge>
    <edge id=":clusterJ12_J9_w0" function="walkingarea">
        <lane id=":clusterJ12_J9_w0_0" index="0" allow="pedestrian" speed="2.78" length="156.69" width="3.20" shape="-33.36,464.35 -11.77,458.37 -48.27,307.40 -54.45,309.08 -51.07,327.28 -47.55,354.70 -43.95,386.73 -40.34,418.75 -36.78,446.16"/>
    </edge>
    <edge id=":clusterJ130_J132_0" function="internal">
        <lane id=":clusterJ130_J132_0_0" index="0" speed="13.89" length="3.31" shape="-199.41,-5.62 -198.54,-6.06 -197.95,-6.39 -197.40,-6.78 -196.62,-7.37"/>
    </edge>
    <edge id=":clusterJ130_J132_1" function="internal">
        <lane id=":clusterJ130_J132_1_0" index="0" speed="13.89" length="3.28" shape="-197.98,-2.76 -195.02,-4.23"/>
        <lane id=":clusterJ130_J132_1_1" index="1" speed="13.89" length="3.28" shape="-196.55,0.10 -193.60,-1.36"/>
        <lane id=":clusterJ130_J132_1_2" index="2" speed="13.89" length="3.28" shape="-195.11,2.97 -192.19,1.51"/>
        <lane id=":clusterJ130_J132_1_3" index="3" speed="13.89" length="3.28" shape="-193.68,5.83 -190.77,4.38"/>
    </edge>
    <edge id=":clusterJ130_J132_w0" function="walkingarea">
        <lane id=":clusterJ130_J132_w0_0" index="0" allow="pedestrian" speed="2.78" length="3.81" width="3.20" shape="-190.06,5.81 -195.73,-5.66 -195.64,-6.11 -197.60,-8.64 -198.48,-7.97 -198.80,-7.75 -199.14,-7.56 -199.56,-7.34 -200.13,-7.05 -192.97,7.26"/>
    </edge>
    <edge id=":clusterJ131_J168_J19_J194_#3more_0" function="internal">
        <lane id=":clusterJ131_J168_J19_J194_#3more_0_0" index="0" speed="13.89" length="52.67" shape="-139.27,7.15 -152.74,-43.80"/>
        <lane id=":clusterJ131_J168_J19_J194_#3more_0_1" index="1" speed="13.89" length="52.67" shape="-136.20,6.25 -149.67,-44.67"/>
        <lane id=":clusterJ131_J168_J19_J194_#3more_0_2" index="2" speed="13.89" length="52.67" shape="-133.13,5.34 -146.59,-45.55"/>
    </edge>
    <edge id=":clusterJ131_J168_J19_J194_#3more_3" function="internal">
        <lane id=":clusterJ131_J168_J19_J194_#3more_3_0" index="0" speed="13.89" length="49.38" shape="-130.06,4.44 -132.39,-9.60 -130.77,-21.43 -125.20,-31.07 -115.68,-38.50"/>
    </edge>
    <edge id=":clusterJ131_J168_J19_J194_#3more_4" function="internal">
        <lane id=":clusterJ131_J168_J19_J194_#3more_4_0" index="0" speed="13.89" length="53.35" shape="-109.50,-27.29 -157.49,-3.78"/>
        <lane id=":clusterJ131_J168_J19_J194_#3more_4_1" index="1" speed="13.89" length="53.35" shape="-111.05,-30.09 -158.89,-6.66"/>
    </edge>
    <edge id=":clusterJ131_J168_J19_J194_#3more_6" function="internal">
        <lane id=":clusterJ131_J168_J19_J194_#3more_6_0" index="0" speed="13.32" length="47.41" shape="-112.59,-32.89 -125.65,-27.63 -136.11,-27.27 -144.07,-32.67 -149.67,-44.67"/>
        <lane id=":clusterJ131_J168_J19_J194_#3more_6_1" index="1" speed="12.45" length="41.29" shape="-114.18,-35.68 -125.57,-31.03 -134.72,-30.59 -141.70,-35.16 -146.59,-45.55"/>
    </edge>
    <edge id=":clusterJ131_J168_J19_J194_#3more_8" function="internal">
        <lane id=":clusterJ131_J168_J19_J194_#3more_8_0" index="0" speed="13.89" length="52.57" shape="-137.05,-48.27 -123.70,2.56"/>
        <lane id=":clusterJ131_J168_J19_J194_#3more_8_1" index="1" speed="13.89" length="52.57" shape="-140.12,-47.39 -126.77,3.47"/>
    </edge>
    <edge id=":clusterJ131_J168_J19_J194_#3more_10" function="internal">
        <lane id=":clusterJ131_J168_J19_J194_#3more_10_0" index="0" speed="13.89" length="47.21" shape="-143.20,-46.52 -141.10,-33.44 -143.01,-22.44 -148.94,-13.51 -158.89,-6.66"/>
    </edge>
    <edge id=":clusterJ131_J168_J19_J194_#3more_11" function="internal">
        <lane id=":clusterJ131_J168_J19_J194_#3more_11_0" index="0" speed="13.89" length="52.71" shape="-164.93,-19.09 -117.23,-41.30"/>
        <lane id=":clusterJ131_J168_J19_J194_#3more_11_1" index="1" speed="13.89" length="52.71" shape="-163.53,-16.21 -115.68,-38.50"/>
    </edge>
    <edge id=":clusterJ131_J168_J19_J194_#3more_13" function="internal">
        <lane id=":clusterJ131_J168_J19_J194_#3more_13_0" index="0" speed="13.85" length="50.49" shape="-162.13,-13.33 -148.31,-18.28 -137.59,-17.54 -129.54,-10.71 -123.70,2.56"/>
        <lane id=":clusterJ131_J168_J19_J194_#3more_13_1" index="1" speed="13.03" length="44.56" shape="-160.74,-10.46 -148.52,-14.84 -139.05,-14.22 -131.93,-8.23 -126.77,3.47"/>
    </edge>
    <edge id=":clusterJ131_J168_J19_J194_#3more_w0" function="walkingarea">
        <lane id=":clusterJ131_J168_J19_J194_#3more_w0_0" index="0" allow="pedestrian" speed="2.78" length="39.57" width="3.20" shape="-140.80,7.60 -122.16,2.11 -123.28,-3.74 -123.06,-9.13 -121.50,-14.03 -118.59,-18.46 -114.33,-22.41 -108.73,-25.89 -118.00,-42.71 -122.26,-40.79 -125.98,-40.05 -129.17,-40.47 -131.82,-42.05 -133.93,-44.80 -135.51,-48.71 -154.28,-43.36 -153.40,-38.53 -153.63,-34.11 -154.97,-30.10 -157.41,-26.50 -160.97,-23.31 -165.63,-20.53 -156.79,-2.34 -153.14,-3.63 -149.88,-3.74 -147.02,-2.67 -144.55,-0.42 -142.48,3.00"/>
    </edge>
    <edge id=":clusterJ133_J169_0" function="internal">
        <lane id=":clusterJ133_J169_0_0" index="0" speed="13.89" length="4.22" shape="-165.69,-74.31 -168.80,-76.78"/>
        <lane id=":clusterJ133_J169_0_1" index="1" speed="13.89" length="4.22" shape="-165.69,-74.31 -165.66,-75.33 -165.56,-76.04 -165.54,-76.73 -165.74,-77.71"/>
        <lane id=":clusterJ133_J169_0_2" index="2" speed="13.89" length="4.22" shape="-165.69,-74.31 -162.68,-78.63"/>
    </edge>
    <edge id=":clusterJ133_J169_3" function="internal">
        <lane id=":clusterJ133_J169_3_0" index="0" speed="13.89" length="4.71" shape="-161.63,-74.97 -165.74,-77.71"/>
        <lane id=":clusterJ133_J169_3_1" index="1" speed="13.89" length="4.71" shape="-158.56,-75.85 -162.68,-78.63"/>
        <lane id=":clusterJ133_J169_3_2" index="2" speed="13.89" length="4.71" shape="-155.48,-76.72 -159.61,-79.56"/>
        <lane id=":clusterJ133_J169_3_3" index="3" speed="13.89" length="4.71" shape="-155.48,-76.72 -156.55,-80.49"/>
    </edge>
    <edge id=":clusterJ133_J169_w0" function="walkingarea">